Version 4.1
SHEET 1 2216 680
WIRE -128 -304 -144 -304
WIRE 304 -304 -128 -304
WIRE 304 -256 304 -304
WIRE -128 -224 -128 -304
WIRE 304 -160 304 -192
WIRE 448 -160 304 -160
WIRE 592 -160 512 -160
WIRE 1008 -160 592 -160
WIRE 592 -144 592 -160
WIRE -128 -128 -128 -144
WIRE 304 -128 304 -160
WIRE 1008 -128 1008 -160
WIRE 592 -48 592 -80
WIRE 1008 -16 1008 -48
WIRE 96 96 -16 96
WIRE 304 96 304 -64
WIRE 304 96 176 96
WIRE 304 160 304 96
WIRE -16 192 -16 96
WIRE 256 240 160 240
WIRE -16 304 -16 272
WIRE 304 384 304 256
WIRE 160 416 160 240
WIRE 160 512 160 496
FLAG -16 304 0
FLAG 160 512 0
FLAG 304 384 0
FLAG -128 -128 0
FLAG -144 -304 vbus
FLAG 592 -48 0
FLAG 1008 -16 0
SYMBOL voltage -16 176 R0
WINDOW 123 0 0 Left 0
WINDOW 39 0 0 Left 0
SYMATTR InstName V1
SYMATTR Value 12
SYMBOL voltage 160 400 R0
WINDOW 123 0 0 Left 0
WINDOW 39 0 0 Left 0
SYMATTR InstName V2
SYMATTR Value PULSE(0 3.3 0 1n 1n 2u 10u 0)
SYMBOL cap 288 -128 R0
SYMATTR InstName C1
SYMATTR Value 100n
SYMBOL voltage -128 -240 R0
WINDOW 123 0 0 Left 0
WINDOW 39 0 0 Left 0
SYMATTR InstName V3
SYMATTR Value 26
SYMBOL schottky 288 -256 R0
SYMATTR InstName D1
SYMBOL res 192 80 R90
WINDOW 0 0 56 VBottom 2
WINDOW 3 32 56 VTop 2
SYMATTR InstName R1
SYMATTR Value 100
SYMBOL schottky 448 -144 R270
WINDOW 0 32 32 VTop 2
WINDOW 3 0 32 VBottom 2
SYMATTR InstName D2
SYMBOL cap 576 -144 R0
SYMATTR InstName C2
SYMATTR Value 1µ
SYMBOL current 1008 -128 R0
WINDOW 123 0 0 Left 0
WINDOW 39 0 0 Left 0
SYMATTR InstName I1
SYMATTR Value 5m
SYMBOL Contrib\\Toshiba\\lvmos\\SSM3K329R_G0_00 256 160 R0
SYMATTR InstName U1
TEXT -208 536 Left 2 !.tran 0 1m 0
