Version 4.1
SHEET 1 1236 680
WIRE 416 -384 240 -384
WIRE 416 -352 416 -384
WIRE 240 -256 240 -384
WIRE 416 -240 416 -272
WIRE -336 -176 -368 -176
WIRE -208 -176 -256 -176
WIRE -128 -176 -208 -176
WIRE -16 -176 -48 -176
WIRE 128 -176 -16 -176
WIRE -208 -144 -208 -176
WIRE -368 -112 -368 -176
WIRE 240 -112 240 -160
WIRE -16 -48 -16 -176
WIRE 96 -48 -16 -48
WIRE -208 -32 -208 -64
WIRE 240 0 240 -48
WIRE 96 32 96 -48
WIRE 32 80 -112 80
WIRE -112 128 -112 80
WIRE -112 240 -112 208
WIRE 96 256 96 128
FLAG -112 240 0
FLAG 96 256 0
FLAG -368 -112 0
FLAG -208 -32 0
FLAG 416 -240 0
FLAG 240 0 0
SYMBOL npn 32 32 R0
SYMATTR InstName Q1
SYMBOL voltage -112 112 R0
WINDOW 123 0 0 Left 0
WINDOW 39 0 0 Left 0
WINDOW 3 24 44 Left 2
SYMATTR InstName V1
SYMATTR Value PULSE(3.3 0 0 1n 1n 0.8 1.8)
SYMBOL res -32 -192 R90
WINDOW 0 0 56 VBottom 2
WINDOW 3 32 56 VTop 2
SYMATTR InstName R3
SYMATTR Value 470k
SYMBOL voltage -240 -176 R90
WINDOW 0 -32 56 VBottom 2
WINDOW 3 32 56 VTop 2
WINDOW 123 0 0 Left 0
WINDOW 39 0 0 Left 0
SYMATTR InstName V2
SYMATTR Value 36
SYMBOL voltage 416 -368 R0
WINDOW 123 0 0 Left 0
WINDOW 39 0 0 Left 0
SYMATTR InstName V3
SYMATTR Value 26
SYMBOL current -208 -144 R0
WINDOW 123 0 0 Left 0
WINDOW 39 0 0 Left 0
SYMATTR InstName I2
SYMATTR Value 1.5m
SYMBOL cap 224 -112 R0
SYMATTR InstName C1
SYMATTR Value 10m
TEXT 536 328 Left 2 !M1 N001 N003 N004 Si4410DZ\n.model Si4410DZ VDMOS(Rd=13m Rs=13m Vto=1.6 Kp=60\n+ Cgdmax=1.9n Cgdmin=50p Cgs=3.1n Cjo=1n\n+ Is=5.5p Rb=5.7m)
TEXT -384 376 Left 2 !.tran 2
