* Z:\home\jthro\Projects\bluesat\owr-502\src\main_power_hub_elec\sim\driver.asc
* Generated by LTspice 24.1.9 for Windows.
Q1 N003 N005 0 0 NPN
V1 N005 0 PULSE(3.3 0 0 1n 1n 0.8 1.8)
R3 N003 N002 470k
V2 N002 0 36
V3 N001 0 26
I2 N002 0 1.5m
C1 N004 0 10m
.model NPN NPN
.model PNP PNP
.lib C:\users\jthro\AppData\Local\LTspice\lib\cmp\standard.bjt
M1 N001 N003 N004 Si4410DZ
.model Si4410DZ VDMOS(Rd=13m Rs=13m Vto=1.6 Kp=60
+ Cgdmax=1.9n Cgdmin=50p Cgs=3.1n Cjo=1n
+ Is=5.5p Rb=5.7m)
.tran 2
.backanno
.end
